RUNSPEC

TITLE
TEST_MODEL

MULTOUT
MULTOUTS

START
1 JUL 2000
/

METRIC
OIL
WATER

DIMENS
10 10 1 /

RUNCTRL
WELLEQUATIONS 1 /
WATERZONE 1 /
/
TNAVCTRL
LONGNAMES 1 /
/

GRID

DX
    100*10/

DY
    100*10/


DZ
    100*10/

TOPS
    100*4000/

PORO
    100*0.2 /

COPY
   PORO PERMX /
/
MULTIPLY
    PERMX 500 1 10 1 10 1 1  /
/
COPY
    PERMX PERMY /
    PERMX PERMZ /
/
MULTIPLY
    PERMZ 0.1 1 10 1 10 1 1  /
/

ADD
    PERMY   5   4 6 4 6 1 1 /
/

EDIT

PROPS

DENSITY
     900 1000          1 /
PVCDO
    400          1 1.000E-05          5          0
    /

PVTW
    400          1 1.000E-05        1          0 /

ROCK
    400          0 /

SWOF
      0.1000  0.0000e+00 8.0000e-01  0
      0.2000  0  8.0000e-01  0
      0.2500  2.7310e-04  5.8082e-01  0
	0.3000  2.1848e-03 4.1010e-01  0
	0.3500  7.3737e-03  2.8010e-01  0
	0.4000  1.7478e-02  1.8378e-01  0
	0.4500  3.4138e-02  1.1473e-01  0
	0.5000  5.8990e-02  6.7253e-02  0
	0.5500  9.3673e-02  3.6301e-02  0
	0.6000  1.3983e-01  1.7506e-02  0
	0.6500  1.9909e-01  7.1706e-03  0
	0.7000  2.7310e-01  2.2688e-03  0
	0.7500 3.6350e-01  4.4820e-04  0
	0.8000  4.7192e-01  2.8000e-05  0
	0.8500 6.0000e-01  0.0000e+00  0
	0.9000  7.4939e-01  0.0000e+00  0
/

SOLUTION

EQUIL
       4000  400    5000          0 /

SCHEDULE

WELSPECS
    'PROD1'   '1'   5   5  1* 'OIL' /
/
COMPDAT
    'PROD1' 2* 1    1 'OPEN' 2*    0.2    1*   0 /
/
WCONPROD
    'PROD1' 'OPEN' 'BHP' 5*  395/
/

TSTEP
    30*10 /
/
